<edges>
  <edge id="e1" from="n1" to="n2"/>
  <edge id="e2" from="n2" to="n3"/>
  <edge id="e3" from="n3" to="n4"/>
  <edge id="e4" from="n4" to="n5"/>
</edges>
