<configuration>
  <input>
    <net-file value="my_net.net.xml"/>
    <route-files value="routes.xml"/>
  </input>
  <time>
    <begin value="0"/>
    <end value="1000"/>
  </time>
</configuration>
